 xtb: 6.7.1 (6d44803)
          04082614243D

  8  7  0     0  0            999 V2000
   -1.0910    0.3167    1.3432 F   0  0  0  0  0  0  0  0  0  0  0  0
   -0.7684    0.1081    0.0722 C   0  0  0  0  0  0  0  0  0  0  0  0
   -1.1586    1.1598   -0.6381 F   0  0  0  0  0  0  0  0  0  0  0  0
   -1.4304   -0.9590   -0.3593 F   0  0  0  0  0  0  0  0  0  0  0  0
    0.7684   -0.1081   -0.0722 C   0  0  0  0  0  0  0  0  0  0  0  0
    1.4304    0.9589    0.3593 F   0  0  0  0  0  0  0  0  0  0  0  0
    1.1586   -1.1598    0.6381 F   0  0  0  0  0  0  0  0  0  0  0  0
    1.0910   -0.3167   -1.3432 F   0  0  0  0  0  0  0  0  0  0  0  0
  1  2  1  0  0  0  0
  2  3  1  0  0  0  0
  2  4  1  0  0  0  0
  2  5  1  0  0  0  0
  5  6  1  0  0  0  0
  5  7  1  0  0  0  0
  5  8  1  0  0  0  0
M  END
