 xtb: 6.7.1 (6d44803)
          04082614243D

245246  0     0  0            999 V2000
   16.1309   -2.1716   -0.2622 C   0  0  0  0  0  0  0  0  0  0  0  0
   15.4410   -1.0780    0.3233 O   0  0  0  0  0  0  0  0  0  0  0  0
   15.8749   -0.7202    1.5447 C   0  0  0  0  0  0  0  0  0  0  0  0
   16.8115   -1.2475    2.0811 O   0  0  0  0  0  0  0  0  0  0  0  0
   15.0993    0.4609    2.1194 C   0  0  0  0  0  0  0  0  0  0  0  0
   14.9020    1.5297    1.0376 C   0  0  0  0  0  0  0  0  0  0  0  0
   15.9571    1.0802    3.2338 C   0  0  0  0  0  0  0  0  0  0  0  0
   13.7474    0.0197    2.7728 C   0  0  0  0  0  0  0  0  0  0  0  0
   13.9622   -0.5726    4.0280 O   0  0  0  0  0  0  0  0  0  0  0  0
   12.7576   -0.8732    1.9707 C   0  0  0  0  0  0  0  0  0  0  0  0
   12.3453   -0.3097    0.6102 C   0  0  0  0  0  0  0  0  0  0  0  0
   13.2074   -2.3177    1.9089 C   0  0  0  0  0  0  0  0  0  0  0  0
   14.2925   -2.6757    2.3004 O   0  0  0  0  0  0  0  0  0  0  0  0
   12.2112   -3.3692    1.3793 C   0  0  0  0  0  0  0  0  0  0  0  0
   12.3699   -4.6277    2.2507 C   0  0  0  0  0  0  0  0  0  0  0  0
   12.6399   -3.6979   -0.0571 C   0  0  0  0  0  0  0  0  0  0  0  0
   10.7887   -2.9271    1.4911 C   0  0  0  0  0  0  0  0  0  0  0  0
    9.9024   -2.7818    0.5100 C   0  0  0  0  0  0  0  0  0  0  0  0
    8.5462   -2.2783    0.8105 C   0  0  0  0  0  0  0  0  0  0  0  0
    8.1060   -2.1629    1.9419 O   0  0  0  0  0  0  0  0  0  0  0  0
    7.8198   -1.9518   -0.2930 N   0  0  0  0  0  0  0  0  0  0  0  0
    6.6280   -1.1458   -0.1673 C   0  0  0  0  0  0  0  0  0  0  0  0
    5.6544   -1.4730   -1.3152 C   0  0  0  0  0  0  0  0  0  0  0  0
    4.4584   -0.7676   -1.0840 O   0  0  0  0  0  0  0  0  0  0  0  0
    5.3993   -2.9921   -1.4577 C   0  0  0  0  0  0  0  0  0  0  0  0
    4.8167   -3.2924   -2.8402 C   0  0  0  0  0  0  0  0  0  0  0  0
    4.4816   -3.5028   -0.3485 C   0  0  0  0  0  0  0  0  0  0  0  0
    7.0390    0.3622   -0.1317 C   0  0  0  0  0  0  0  0  0  0  0  0
    8.3073    0.5177    0.4537 O   0  0  0  0  0  0  0  0  0  0  0  0
    5.9515    1.2225    0.5593 C   0  0  0  0  0  0  0  0  0  0  0  0
    6.0574    1.1399    2.0829 C   0  0  0  0  0  0  0  0  0  0  0  0
    6.0044    2.6583    0.1119 C   0  0  0  0  0  0  0  0  0  0  0  0
    5.7063    3.1277   -1.0959 C   0  0  0  0  0  0  0  0  0  0  0  0
    5.3392    2.2725   -2.2696 C   0  0  0  0  0  0  0  0  0  0  0  0
    5.7576    4.6219   -1.3573 C   0  0  0  0  0  0  0  0  0  0  0  0
    6.5997    4.9355   -2.4533 O   0  0  0  0  0  0  0  0  0  0  0  0
    4.3377    5.2105   -1.5978 C   0  0  0  0  0  0  0  0  0  0  0  0
    4.2341    6.5736   -0.9128 C   0  0  0  0  0  0  0  0  0  0  0  0
    3.9774    5.3365   -3.0900 C   0  0  0  0  0  0  0  0  0  0  0  0
    2.6572    4.6757   -3.4899 C   0  0  0  0  0  0  0  0  0  0  0  0
    1.4287    5.3571   -2.8858 C   0  0  0  0  0  0  0  0  0  0  0  0
    1.3340    6.6456   -3.4461 O   0  0  0  0  0  0  0  0  0  0  0  0
    0.1281    4.5494   -3.1443 C   0  0  0  0  0  0  0  0  0  0  0  0
   -0.1355    4.3421   -4.6334 C   0  0  0  0  0  0  0  0  0  0  0  0
    0.1725    3.2190   -2.4126 C   0  0  0  0  0  0  0  0  0  0  0  0
    0.3127    2.1475   -2.9822 O   0  0  0  0  0  0  0  0  0  0  0  0
    0.0904    3.3321   -1.0662 N   0  0  0  0  0  0  0  0  0  0  0  0
   -0.2358    2.2441   -0.1530 C   0  0  0  0  0  0  0  0  0  0  0  0
    0.7899    1.1000   -0.2757 C   0  0  0  0  0  0  0  0  0  0  0  0
    2.2085    1.6446   -0.4071 C   0  0  0  0  0  0  0  0  0  0  0  0
    0.6875    0.2916    0.8782 O   0  0  0  0  0  0  0  0  0  0  0  0
   -1.7175    1.8238   -0.4216 C   0  0  0  0  0  0  0  0  0  0  0  0
   -2.3521    3.0639   -0.7744 O   0  0  0  0  0  0  0  0  0  0  0  0
   -3.1097    3.2800   -1.8575 C   0  0  0  0  0  0  0  0  0  0  0  0
   -3.2781    4.4145   -2.2083 O   0  0  0  0  0  0  0  0  0  0  0  0
   -3.8138    2.0941   -2.5232 C   0  0  0  0  0  0  0  0  0  0  0  0
   -2.9945    1.4553   -3.6664 C   0  0  0  0  0  0  0  0  0  0  0  0
   -2.8689    2.3720   -4.7201 O   0  0  0  0  0  0  0  0  0  0  0  0
   -3.6931    0.1618   -4.1004 C   0  0  0  0  0  0  0  0  0  0  0  0
   -4.4887   -0.4520   -3.4506 O   0  0  0  0  0  0  0  0  0  0  0  0
   -3.2898   -0.2081   -5.3175 O   0  0  0  0  0  0  0  0  0  0  0  0
   -5.0763    2.5465   -3.0389 N   0  0  0  0  0  0  0  0  0  0  0  0
   -6.3064    2.1573   -2.6150 C   0  0  0  0  0  0  0  0  0  0  0  0
   -7.3146    2.5442   -3.1635 O   0  0  0  0  0  0  0  0  0  0  0  0
   -6.2894    1.2039   -1.4642 C   0  0  0  0  0  0  0  0  0  0  0  0
   -6.2026    1.5865   -0.1967 C   0  0  0  0  0  0  0  0  0  0  0  0
   -6.1636    2.9852    0.2469 C   0  0  0  0  0  0  0  0  0  0  0  0
   -7.1674    3.8450    0.1334 C   0  0  0  0  0  0  0  0  0  0  0  0
   -8.5212    3.5457   -0.4197 C   0  0  0  0  0  0  0  0  0  0  0  0
   -9.6028    3.7266    0.6558 C   0  0  0  0  0  0  0  0  0  0  0  0
   -9.4895    2.6911    1.7308 C   0  0  0  0  0  0  0  0  0  0  0  0
  -10.5087    2.1015    2.3378 C   0  0  0  0  0  0  0  0  0  0  0  0
  -11.9362    2.3497    2.0790 C   0  0  0  0  0  0  0  0  0  0  0  0
  -12.6310    1.8742    1.0549 C   0  0  0  0  0  0  0  0  0  0  0  0
  -12.0653    0.9798   -0.0024 C   0  0  0  0  0  0  0  0  0  0  0  0
  -12.3842   -0.4955    0.2826 C   0  0  0  0  0  0  0  0  0  0  0  0
  -13.8597   -0.8435    0.0807 C   0  0  0  0  0  0  0  0  0  0  0  0
  -14.0750   -2.3443    0.2841 C   0  0  0  0  0  0  0  0  0  0  0  0
  -15.5279   -2.7340    0.0292 C   0  0  0  0  0  0  0  0  0  0  0  0
  -13.1340   -3.0969   -0.6584 C   0  0  0  0  0  0  0  0  0  0  0  0
  -11.6728   -2.6519   -0.4768 C   0  0  0  0  0  0  0  0  0  0  0  0
  -11.0553   -3.2360    0.8073 C   0  0  0  0  0  0  0  0  0  0  0  0
   -9.5236   -3.1093    0.9130 C   0  0  0  0  0  0  0  0  0  0  0  0
   -9.0323   -4.0755    1.8308 O   0  0  0  0  0  0  0  0  0  0  0  0
   -9.0573   -1.6953    1.3320 C   0  0  0  0  0  0  0  0  0  0  0  0
   -8.5928   -0.9165    0.1043 C   0  0  0  0  0  0  0  0  0  0  0  0
   -7.9098   -1.6991    2.3626 C   0  0  0  0  0  0  0  0  0  0  0  0
   -7.5970   -0.3278    2.6346 O   0  0  0  0  0  0  0  0  0  0  0  0
   -8.2242   -2.3924    3.6648 C   0  0  0  0  0  0  0  0  0  0  0  0
   -9.5683   -2.0543    4.2498 C   0  0  0  0  0  0  0  0  0  0  0  0
   -7.3895   -3.1611    4.3567 C   0  0  0  0  0  0  0  0  0  0  0  0
   -5.9863   -3.6795    4.1658 C   0  0  0  0  0  0  0  0  0  0  0  0
   -6.0306   -5.2048    3.9965 C   0  0  0  0  0  0  0  0  0  0  0  0
   -5.0099   -2.9557    3.2102 C   0  0  0  0  0  0  0  0  0  0  0  0
   -3.6813   -3.3735    3.5167 O   0  0  0  0  0  0  0  0  0  0  0  0
   -5.0930   -3.0843    1.6965 C   0  0  0  0  0  0  0  0  0  0  0  0
   -5.7566   -4.2670    1.0631 C   0  0  0  0  0  0  0  0  0  0  0  0
   -4.4751   -2.1725    0.9482 C   0  0  0  0  0  0  0  0  0  0  0  0
   -3.7381   -0.9701    1.4673 C   0  0  0  0  0  0  0  0  0  0  0  0
   -2.9077   -0.2887    0.3792 C   0  0  0  0  0  0  0  0  0  0  0  0
   -1.7470   -1.1013    0.1560 O   0  0  0  0  0  0  0  0  0  0  0  0
   -1.4824   -1.4810   -1.0840 C   0  0  0  0  0  0  0  0  0  0  0  0
   -2.0740   -1.0926   -2.0624 O   0  0  0  0  0  0  0  0  0  0  0  0
   -0.3452   -2.4774   -1.1156 C   0  0  0  0  0  0  0  0  0  0  0  0
    0.2457   -2.6664   -2.5318 C   0  0  0  0  0  0  0  0  0  0  0  0
    1.1384   -3.7412   -2.5681 O   0  0  0  0  0  0  0  0  0  0  0  0
    0.9426   -1.3623   -2.9156 C   0  0  0  0  0  0  0  0  0  0  0  0
    2.1115   -1.1752   -2.6507 O   0  0  0  0  0  0  0  0  0  0  0  0
    0.1518   -0.5004   -3.4963 O   0  0  0  0  0  0  0  0  0  0  0  0
   -2.5302    1.1678    0.7279 C   0  0  0  0  0  0  0  0  0  0  0  0
   -1.8986    1.3038    2.1103 C   0  0  0  0  0  0  0  0  0  0  0  0
  -11.5627   -1.2510   -0.5909 O   0  0  0  0  0  0  0  0  0  0  0  0
   15.6359   -2.3776   -1.2082 H   0  0  0  0  0  0  0  0  0  0  0  0
   17.1790   -1.9132   -0.4262 H   0  0  0  0  0  0  0  0  0  0  0  0
   16.0843   -3.0366    0.4024 H   0  0  0  0  0  0  0  0  0  0  0  0
   14.2588    2.3229    1.4120 H   0  0  0  0  0  0  0  0  0  0  0  0
   15.8672    1.9665    0.7880 H   0  0  0  0  0  0  0  0  0  0  0  0
   14.4753    1.1269    0.1279 H   0  0  0  0  0  0  0  0  0  0  0  0
   16.8947    1.4429    2.8208 H   0  0  0  0  0  0  0  0  0  0  0  0
   15.4241    1.9090    3.6921 H   0  0  0  0  0  0  0  0  0  0  0  0
   16.1869    0.3473    4.0004 H   0  0  0  0  0  0  0  0  0  0  0  0
   13.2104    0.9517    2.9966 H   0  0  0  0  0  0  0  0  0  0  0  0
   14.4951   -1.3694    3.8898 H   0  0  0  0  0  0  0  0  0  0  0  0
   11.8551   -0.8967    2.5983 H   0  0  0  0  0  0  0  0  0  0  0  0
   13.1236   -0.4751   -0.1277 H   0  0  0  0  0  0  0  0  0  0  0  0
   12.1590    0.7567    0.7025 H   0  0  0  0  0  0  0  0  0  0  0  0
   11.4259   -0.7764    0.2698 H   0  0  0  0  0  0  0  0  0  0  0  0
   13.4104   -4.9421    2.2593 H   0  0  0  0  0  0  0  0  0  0  0  0
   12.0643   -4.4237    3.2744 H   0  0  0  0  0  0  0  0  0  0  0  0
   11.7556   -5.4333    1.8563 H   0  0  0  0  0  0  0  0  0  0  0  0
   12.0170   -4.4955   -0.4555 H   0  0  0  0  0  0  0  0  0  0  0  0
   12.5609   -2.8275   -0.7026 H   0  0  0  0  0  0  0  0  0  0  0  0
   13.6731   -4.0360   -0.0572 H   0  0  0  0  0  0  0  0  0  0  0  0
   10.4372   -2.7383    2.4988 H   0  0  0  0  0  0  0  0  0  0  0  0
   10.1412   -2.9584   -0.5279 H   0  0  0  0  0  0  0  0  0  0  0  0
    8.3055   -1.8783   -1.1743 H   0  0  0  0  0  0  0  0  0  0  0  0
    6.1681   -1.4146    0.7874 H   0  0  0  0  0  0  0  0  0  0  0  0
    6.1168   -1.1169   -2.2540 H   0  0  0  0  0  0  0  0  0  0  0  0
    3.8163   -0.9850   -1.7785 H   0  0  0  0  0  0  0  0  0  0  0  0
    6.3627   -3.5029   -1.3719 H   0  0  0  0  0  0  0  0  0  0  0  0
    4.5646   -4.3466   -2.9247 H   0  0  0  0  0  0  0  0  0  0  0  0
    3.9177   -2.7095   -3.0272 H   0  0  0  0  0  0  0  0  0  0  0  0
    5.5390   -3.0523   -3.6179 H   0  0  0  0  0  0  0  0  0  0  0  0
    4.2362   -4.5487   -0.5148 H   0  0  0  0  0  0  0  0  0  0  0  0
    4.9692   -3.4163    0.6188 H   0  0  0  0  0  0  0  0  0  0  0  0
    3.5593   -2.9269   -0.3191 H   0  0  0  0  0  0  0  0  0  0  0  0
    7.1736    0.7072   -1.1611 H   0  0  0  0  0  0  0  0  0  0  0  0
    8.2476    0.2261    1.3728 H   0  0  0  0  0  0  0  0  0  0  0  0
    4.9959    0.7966    0.2542 H   0  0  0  0  0  0  0  0  0  0  0  0
    6.1039    0.1072    2.4232 H   0  0  0  0  0  0  0  0  0  0  0  0
    5.1858    1.6070    2.5354 H   0  0  0  0  0  0  0  0  0  0  0  0
    6.9426    1.6646    2.4388 H   0  0  0  0  0  0  0  0  0  0  0  0
    6.2967    3.3633    0.8798 H   0  0  0  0  0  0  0  0  0  0  0  0
    4.9990    1.2945   -1.9497 H   0  0  0  0  0  0  0  0  0  0  0  0
    6.2039    2.1506   -2.9232 H   0  0  0  0  0  0  0  0  0  0  0  0
    4.5614    2.7489   -2.8558 H   0  0  0  0  0  0  0  0  0  0  0  0
    6.1618    5.1049   -0.4527 H   0  0  0  0  0  0  0  0  0  0  0  0
    7.4759    4.5876   -2.2604 H   0  0  0  0  0  0  0  0  0  0  0  0
    3.6344    4.5251   -1.1114 H   0  0  0  0  0  0  0  0  0  0  0  0
    5.0036    7.2378   -1.2986 H   0  0  0  0  0  0  0  0  0  0  0  0
    3.2647    7.0249   -1.1077 H   0  0  0  0  0  0  0  0  0  0  0  0
    4.3629    6.4792    0.1642 H   0  0  0  0  0  0  0  0  0  0  0  0
    4.7777    4.9051   -3.6889 H   0  0  0  0  0  0  0  0  0  0  0  0
    3.9169    6.3914   -3.3558 H   0  0  0  0  0  0  0  0  0  0  0  0
    2.5678    4.7319   -4.5747 H   0  0  0  0  0  0  0  0  0  0  0  0
    2.6437    3.6245   -3.1967 H   0  0  0  0  0  0  0  0  0  0  0  0
    1.5645    5.4388   -1.7934 H   0  0  0  0  0  0  0  0  0  0  0  0
    0.5168    7.0628   -3.1525 H   0  0  0  0  0  0  0  0  0  0  0  0
   -0.7062    5.1247   -2.7218 H   0  0  0  0  0  0  0  0  0  0  0  0
   -1.1699    4.0444   -4.7837 H   0  0  0  0  0  0  0  0  0  0  0  0
    0.5110    3.5629   -5.0277 H   0  0  0  0  0  0  0  0  0  0  0  0
    0.0511    5.2678   -5.1714 H   0  0  0  0  0  0  0  0  0  0  0  0
   -0.1617    4.2439   -0.7171 H   0  0  0  0  0  0  0  0  0  0  0  0
   -0.1496    2.6512    0.8553 H   0  0  0  0  0  0  0  0  0  0  0  0
    0.5447    0.5000   -1.1607 H   0  0  0  0  0  0  0  0  0  0  0  0
    2.4482    2.2854    0.4385 H   0  0  0  0  0  0  0  0  0  0  0  0
    2.3284    2.2086   -1.3239 H   0  0  0  0  0  0  0  0  0  0  0  0
    2.9097    0.8142   -0.4352 H   0  0  0  0  0  0  0  0  0  0  0  0
    1.5174   -0.1897    0.9775 H   0  0  0  0  0  0  0  0  0  0  0  0
   -1.7155    1.1600   -1.2881 H   0  0  0  0  0  0  0  0  0  0  0  0
   -4.0135    1.3177   -1.7803 H   0  0  0  0  0  0  0  0  0  0  0  0
   -1.9962    1.1450   -3.3146 H   0  0  0  0  0  0  0  0  0  0  0  0
   -2.5584    1.8935   -5.4989 H   0  0  0  0  0  0  0  0  0  0  0  0
   -3.7046   -1.0482   -5.5687 H   0  0  0  0  0  0  0  0  0  0  0  0
   -5.0312    3.2191   -3.7931 H   0  0  0  0  0  0  0  0  0  0  0  0
   -6.3486    0.1621   -1.7432 H   0  0  0  0  0  0  0  0  0  0  0  0
   -6.1684    0.8438    0.5927 H   0  0  0  0  0  0  0  0  0  0  0  0
   -5.2459    3.2960    0.7365 H   0  0  0  0  0  0  0  0  0  0  0  0
   -7.0412    4.8507    0.5160 H   0  0  0  0  0  0  0  0  0  0  0  0
   -8.7224    4.2313   -1.2460 H   0  0  0  0  0  0  0  0  0  0  0  0
   -8.5611    2.5316   -0.8144 H   0  0  0  0  0  0  0  0  0  0  0  0
   -9.4874    4.7178    1.1095 H   0  0  0  0  0  0  0  0  0  0  0  0
  -10.5928    3.6840    0.2003 H   0  0  0  0  0  0  0  0  0  0  0  0
   -8.4802    2.4378    2.0258 H   0  0  0  0  0  0  0  0  0  0  0  0
  -10.3105    1.3965    3.1375 H   0  0  0  0  0  0  0  0  0  0  0  0
  -12.4360    2.9520    2.8308 H   0  0  0  0  0  0  0  0  0  0  0  0
  -13.6856    2.1031    0.9724 H   0  0  0  0  0  0  0  0  0  0  0  0
  -10.9803    1.0730   -0.0315 H   0  0  0  0  0  0  0  0  0  0  0  0
  -12.4634    1.2410   -0.9840 H   0  0  0  0  0  0  0  0  0  0  0  0
  -12.1135   -0.7067    1.3302 H   0  0  0  0  0  0  0  0  0  0  0  0
  -14.4686   -0.2741    0.7838 H   0  0  0  0  0  0  0  0  0  0  0  0
  -14.1528   -0.5709   -0.9356 H   0  0  0  0  0  0  0  0  0  0  0  0
  -13.8255   -2.5984    1.3207 H   0  0  0  0  0  0  0  0  0  0  0  0
  -15.8121   -2.4954   -0.9934 H   0  0  0  0  0  0  0  0  0  0  0  0
  -16.1897   -2.1956    0.7038 H   0  0  0  0  0  0  0  0  0  0  0  0
  -15.6708   -3.8011    0.1850 H   0  0  0  0  0  0  0  0  0  0  0  0
  -13.2165   -4.1740   -0.5046 H   0  0  0  0  0  0  0  0  0  0  0  0
  -13.4288   -2.8780   -1.6872 H   0  0  0  0  0  0  0  0  0  0  0  0
  -11.0844   -3.0260   -1.3258 H   0  0  0  0  0  0  0  0  0  0  0  0
  -11.3032   -4.3027    0.8144 H   0  0  0  0  0  0  0  0  0  0  0  0
  -11.5165   -2.7905    1.6888 H   0  0  0  0  0  0  0  0  0  0  0  0
   -9.0922   -3.3299   -0.0774 H   0  0  0  0  0  0  0  0  0  0  0  0
   -9.3898   -4.9367    1.5853 H   0  0  0  0  0  0  0  0  0  0  0  0
   -9.8933   -1.1529    1.7750 H   0  0  0  0  0  0  0  0  0  0  0  0
   -7.6956   -1.3712   -0.3098 H   0  0  0  0  0  0  0  0  0  0  0  0
   -8.3698    0.1044    0.3936 H   0  0  0  0  0  0  0  0  0  0  0  0
   -9.3719   -0.9027   -0.6504 H   0  0  0  0  0  0  0  0  0  0  0  0
   -7.0372   -2.1635    1.8965 H   0  0  0  0  0  0  0  0  0  0  0  0
   -7.1258   -0.2990    3.4737 H   0  0  0  0  0  0  0  0  0  0  0  0
  -10.3475   -2.6078    3.7306 H   0  0  0  0  0  0  0  0  0  0  0  0
   -9.6144   -2.3109    5.3054 H   0  0  0  0  0  0  0  0  0  0  0  0
   -9.7674   -0.9900    4.1350 H   0  0  0  0  0  0  0  0  0  0  0  0
   -7.7855   -3.5492    5.2910 H   0  0  0  0  0  0  0  0  0  0  0  0
   -5.5116   -3.5051    5.1492 H   0  0  0  0  0  0  0  0  0  0  0  0
   -5.0458   -5.5770    3.7248 H   0  0  0  0  0  0  0  0  0  0  0  0
   -6.3281   -5.6683    4.9353 H   0  0  0  0  0  0  0  0  0  0  0  0
   -6.7520   -5.4916    3.2398 H   0  0  0  0  0  0  0  0  0  0  0  0
   -5.1029   -1.8804    3.4513 H   0  0  0  0  0  0  0  0  0  0  0  0
   -3.5529   -3.3468    4.4720 H   0  0  0  0  0  0  0  0  0  0  0  0
   -6.7906   -4.3501    1.3890 H   0  0  0  0  0  0  0  0  0  0  0  0
   -5.2295   -5.1800    1.3313 H   0  0  0  0  0  0  0  0  0  0  0  0
   -5.7358   -4.1631   -0.0195 H   0  0  0  0  0  0  0  0  0  0  0  0
   -4.5010   -2.2752   -0.1285 H   0  0  0  0  0  0  0  0  0  0  0  0
   -4.4555   -0.2461    1.8643 H   0  0  0  0  0  0  0  0  0  0  0  0
   -3.0663   -1.2798    2.2682 H   0  0  0  0  0  0  0  0  0  0  0  0
   -3.4825   -0.2814   -0.5574 H   0  0  0  0  0  0  0  0  0  0  0  0
   -0.7346   -3.4419   -0.7802 H   0  0  0  0  0  0  0  0  0  0  0  0
    0.4208   -2.1647   -0.4037 H   0  0  0  0  0  0  0  0  0  0  0  0
   -0.5622   -2.8741   -3.2374 H   0  0  0  0  0  0  0  0  0  0  0  0
    1.9851   -3.4474   -2.1998 H   0  0  0  0  0  0  0  0  0  0  0  0
    0.5056    0.4185   -3.5471 H   0  0  0  0  0  0  0  0  0  0  0  0
   -3.4828    1.7104    0.7458 H   0  0  0  0  0  0  0  0  0  0  0  0
   -1.7121    2.3514    2.3331 H   0  0  0  0  0  0  0  0  0  0  0  0
   -2.5811    0.9246    2.8642 H   0  0  0  0  0  0  0  0  0  0  0  0
   -0.9704    0.7463    2.1601 H   0  0  0  0  0  0  0  0  0  0  0  0
  1  2  1  0  0  0  0
  2  3  1  0  0  0  0
  3  4  2  0  0  0  0
  3  5  1  0  0  0  0
  5  6  1  0  0  0  0
  5  7  1  0  0  0  0
  5  8  1  0  0  0  0
  8  9  1  0  0  0  0
  8 10  1  0  0  0  0
 10 11  1  0  0  0  0
 10 12  1  0  0  0  0
 12 13  2  0  0  0  0
 12 14  1  0  0  0  0
 14 15  1  0  0  0  0
 14 16  1  0  0  0  0
 14 17  1  0  0  0  0
 17 18  2  0  0  0  0
 18 19  1  0  0  0  0
 19 20  2  0  0  0  0
 19 21  4  0  0  0  0
 21 22  1  0  0  0  0
 22 23  1  0  0  0  0
 23 24  1  0  0  0  0
 23 25  1  0  0  0  0
 25 26  1  0  0  0  0
 25 27  1  0  0  0  0
 22 28  1  0  0  0  0
 28 29  1  0  0  0  0
 28 30  1  0  0  0  0
 30 31  1  0  0  0  0
 30 32  1  0  0  0  0
 32 33  2  0  0  0  0
 33 34  1  0  0  0  0
 33 35  1  0  0  0  0
 35 36  1  0  0  0  0
 35 37  1  0  0  0  0
 37 38  1  0  0  0  0
 37 39  1  0  0  0  0
 39 40  1  0  0  0  0
 40 41  1  0  0  0  0
 41 42  1  0  0  0  0
 41 43  1  0  0  0  0
 43 44  1  0  0  0  0
 43 45  1  0  0  0  0
 45 46  2  0  0  0  0
 45 47  4  0  0  0  0
 47 48  1  0  0  0  0
 48 49  1  0  0  0  0
 49 50  1  0  0  0  0
 49 51  1  0  0  0  0
 48 52  1  0  0  0  0
 52 53  1  0  0  0  0
 53 54  1  0  0  0  0
 54 55  2  0  0  0  0
 54 56  1  0  0  0  0
 56 57  1  0  0  0  0
 57 58  1  0  0  0  0
 57 59  1  0  0  0  0
 59 60  2  0  0  0  0
 59 61  1  0  0  0  0
 56 62  1  0  0  0  0
 62 63  4  0  0  0  0
 63 64  2  0  0  0  0
 63 65  1  0  0  0  0
 65 66  2  0  0  0  0
 66 67  1  0  0  0  0
 67 68  2  0  0  0  0
 68 69  1  0  0  0  0
 69 70  1  0  0  0  0
 70 71  1  0  0  0  0
 71 72  2  0  0  0  0
 72 73  1  0  0  0  0
 73 74  2  0  0  0  0
 74 75  1  0  0  0  0
 75 76  1  0  0  0  0
 76 77  1  0  0  0  0
 77 78  1  0  0  0  0
 78 79  1  0  0  0  0
 78 80  1  0  0  0  0
 80 81  1  0  0  0  0
 81 82  1  0  0  0  0
 82 83  1  0  0  0  0
 83 84  1  0  0  0  0
 83 85  1  0  0  0  0
 85 86  1  0  0  0  0
 85 87  1  0  0  0  0
 87 88  1  0  0  0  0
 87 89  1  0  0  0  0
 89 90  1  0  0  0  0
 89 91  2  0  0  0  0
 91 92  1  0  0  0  0
 92 93  1  0  0  0  0
 92 94  1  0  0  0  0
 94 95  1  0  0  0  0
 94 96  1  0  0  0  0
 96 97  1  0  0  0  0
 96 98  2  0  0  0  0
 98 99  1  0  0  0  0
 99100  1  0  0  0  0
100101  1  0  0  0  0
101102  1  0  0  0  0
102103  2  0  0  0  0
102104  1  0  0  0  0
104105  1  0  0  0  0
105106  1  0  0  0  0
105107  1  0  0  0  0
107108  2  0  0  0  0
107109  4  0  0  0  0
 52110  1  0  0  0  0
100110  1  0  0  0  0
110111  1  0  0  0  0
 76112  1  0  0  0  0
 81112  1  0  0  0  0
  1113  1  0  0  0  0
  1114  1  0  0  0  0
  1115  1  0  0  0  0
  6116  1  0  0  0  0
  6117  1  0  0  0  0
  6118  1  0  0  0  0
  7119  1  0  0  0  0
  7120  1  0  0  0  0
  7121  1  0  0  0  0
  8122  1  0  0  0  0
  9123  1  0  0  0  0
 10124  1  0  0  0  0
 11125  1  0  0  0  0
 11126  1  0  0  0  0
 11127  1  0  0  0  0
 15128  1  0  0  0  0
 15129  1  0  0  0  0
 15130  1  0  0  0  0
 16131  1  0  0  0  0
 16132  1  0  0  0  0
 16133  1  0  0  0  0
 17134  1  0  0  0  0
 18135  1  0  0  0  0
 21136  1  0  0  0  0
 22137  1  0  0  0  0
 23138  1  0  0  0  0
 24139  1  0  0  0  0
 25140  1  0  0  0  0
 26141  1  0  0  0  0
 26142  1  0  0  0  0
 26143  1  0  0  0  0
 27144  1  0  0  0  0
 27145  1  0  0  0  0
 27146  1  0  0  0  0
 28147  1  0  0  0  0
 29148  1  0  0  0  0
 30149  1  0  0  0  0
 31150  1  0  0  0  0
 31151  1  0  0  0  0
 31152  1  0  0  0  0
 32153  1  0  0  0  0
 34154  1  0  0  0  0
 34155  1  0  0  0  0
 34156  1  0  0  0  0
 35157  1  0  0  0  0
 36158  1  0  0  0  0
 37159  1  0  0  0  0
 38160  1  0  0  0  0
 38161  1  0  0  0  0
 38162  1  0  0  0  0
 39163  1  0  0  0  0
 39164  1  0  0  0  0
 40165  1  0  0  0  0
 40166  1  0  0  0  0
 41167  1  0  0  0  0
 42168  1  0  0  0  0
 43169  1  0  0  0  0
 44170  1  0  0  0  0
 44171  1  0  0  0  0
 44172  1  0  0  0  0
 47173  1  0  0  0  0
 48174  1  0  0  0  0
 49175  1  0  0  0  0
 50176  1  0  0  0  0
 50177  1  0  0  0  0
 50178  1  0  0  0  0
 51179  1  0  0  0  0
 52180  1  0  0  0  0
 56181  1  0  0  0  0
 57182  1  0  0  0  0
 58183  1  0  0  0  0
 61184  1  0  0  0  0
 62185  1  0  0  0  0
 65186  1  0  0  0  0
 66187  1  0  0  0  0
 67188  1  0  0  0  0
 68189  1  0  0  0  0
 69190  1  0  0  0  0
 69191  1  0  0  0  0
 70192  1  0  0  0  0
 70193  1  0  0  0  0
 71194  1  0  0  0  0
 72195  1  0  0  0  0
 73196  1  0  0  0  0
 74197  1  0  0  0  0
 75198  1  0  0  0  0
 75199  1  0  0  0  0
 76200  1  0  0  0  0
 77201  1  0  0  0  0
 77202  1  0  0  0  0
 78203  1  0  0  0  0
 79204  1  0  0  0  0
 79205  1  0  0  0  0
 79206  1  0  0  0  0
 80207  1  0  0  0  0
 80208  1  0  0  0  0
 81209  1  0  0  0  0
 82210  1  0  0  0  0
 82211  1  0  0  0  0
 83212  1  0  0  0  0
 84213  1  0  0  0  0
 85214  1  0  0  0  0
 86215  1  0  0  0  0
 86216  1  0  0  0  0
 86217  1  0  0  0  0
 87218  1  0  0  0  0
 88219  1  0  0  0  0
 90220  1  0  0  0  0
 90221  1  0  0  0  0
 90222  1  0  0  0  0
 91223  1  0  0  0  0
 92224  1  0  0  0  0
 93225  1  0  0  0  0
 93226  1  0  0  0  0
 93227  1  0  0  0  0
 94228  1  0  0  0  0
 95229  1  0  0  0  0
 97230  1  0  0  0  0
 97231  1  0  0  0  0
 97232  1  0  0  0  0
 98233  1  0  0  0  0
 99234  1  0  0  0  0
 99235  1  0  0  0  0
100236  1  0  0  0  0
104237  1  0  0  0  0
104238  1  0  0  0  0
105239  1  0  0  0  0
106240  1  0  0  0  0
109241  1  0  0  0  0
110242  1  0  0  0  0
111243  1  0  0  0  0
111244  1  0  0  0  0
111245  1  0  0  0  0
M  END
