 xtb: 6.7.1 (6d44803)
          04082614243D

  8  7  0     0  0            999 V2000
    0.7598    0.0060    0.0387 C   0  0  0  0  0  0  0  0  0  0  0  0
   -0.7598   -0.0060   -0.0387 C   0  0  0  0  0  0  0  0  0  0  0  0
    1.1939   -0.2757   -0.9180 H   0  0  0  0  0  0  0  0  0  0  0  0
    1.1100   -0.6953    0.7928 H   0  0  0  0  0  0  0  0  0  0  0  0
    1.1218    0.9979    0.2998 H   0  0  0  0  0  0  0  0  0  0  0  0
   -1.1218   -0.9979   -0.2998 H   0  0  0  0  0  0  0  0  0  0  0  0
   -1.1100    0.6953   -0.7928 H   0  0  0  0  0  0  0  0  0  0  0  0
   -1.1939    0.2757    0.9180 H   0  0  0  0  0  0  0  0  0  0  0  0
  1  2  1  0  0  0  0
  1  3  1  0  0  0  0
  1  4  1  0  0  0  0
  1  5  1  0  0  0  0
  2  6  1  0  0  0  0
  2  7  1  0  0  0  0
  2  8  1  0  0  0  0
M  END
