 xtb: 6.7.1 (6d44803)
          04082614243D

  5  4  0     0  0            999 V2000
    0.0598    0.9277   -1.0219 F   0  0  0  0  0  0  0  0  0  0  0  0
   -0.0005    0.0833    0.0042 C   0  0  0  0  0  0  0  0  0  0  0  0
   -0.0709    0.8195    1.1099 F   0  0  0  0  0  0  0  0  0  0  0  0
   -1.4555   -0.9200   -0.1359 Cl  0  0  0  0  0  0  0  0  0  0  0  0
    1.4671   -0.9105    0.0437 Cl  0  0  0  0  0  0  0  0  0  0  0  0
  1  2  1  0  0  0  0
  2  3  1  0  0  0  0
  2  4  1  0  0  0  0
  2  5  1  0  0  0  0
M  END
