 xtb: 6.7.1 (6d44803)
          04082614243D

 52 57  0     0  0            999 V2000
   -3.5285    1.3937   -3.7118 C   0  0  0  0  0  0  0  0  0  0  0  0
   -4.3295    1.3768   -2.5477 O   0  0  0  0  0  0  0  0  0  0  0  0
   -3.5493    1.2945   -1.4296 N   0  0  0  0  0  0  0  0  0  0  0  0
   -4.0970    1.3164   -0.2679 C   0  0  0  0  0  0  0  0  0  0  0  0
   -3.1144    1.2355    0.8604 C   0  0  0  0  0  0  0  0  0  0  0  0
   -3.3680    1.4591    2.0241 O   0  0  0  0  0  0  0  0  0  0  0  0
   -1.8739    0.8577    0.4454 N   0  0  0  0  0  0  0  0  0  0  0  0
   -0.7643    0.8073    1.3300 C   0  0  0  0  0  0  0  0  0  0  0  0
    0.5971    1.2881    0.7994 C   0  0  0  0  0  0  0  0  0  0  0  0
    1.0038    2.2410    0.2146 O   0  0  0  0  0  0  0  0  0  0  0  0
    1.1812    0.0785    1.1354 N   0  0  0  0  0  0  0  0  0  0  0  0
    2.4621   -0.3937    1.3717 C   0  0  0  0  0  0  0  0  0  0  0  0
    3.5072    0.6043    0.9414 C   0  0  0  0  0  0  0  0  0  0  0  0
    4.3480    0.2429   -0.0660 O   0  0  0  0  0  0  0  0  0  0  0  0
    3.5598    1.7013    1.3977 O   0  0  0  0  0  0  0  0  0  0  0  0
    2.6485   -1.5541    2.0287 C   0  0  0  0  0  0  0  0  0  0  0  0
    3.9573   -2.2356    2.2799 C   0  0  0  0  0  0  0  0  0  0  0  0
    5.4607   -1.5771    1.4893 S   0  0  0  0  0  0  0  0  0  0  0  0
    4.8416   -1.0765   -0.1886 C   0  0  0  0  0  0  0  0  0  0  0  0
    3.8879   -1.9842   -0.6748 N   0  0  0  0  0  0  0  0  0  0  0  0
    2.7178   -2.2278   -0.6581 C   0  0  0  0  0  0  0  0  0  0  0  0
    1.6393   -2.6211   -0.7542 O   0  0  0  0  0  0  0  0  0  0  0  0
    4.6769   -1.1209   -3.1027 C   0  0  0  0  0  0  0  0  0  0  0  0
    3.9067   -1.2296   -3.9627 O   0  0  0  0  0  0  0  0  0  0  0  0
    5.6189   -0.9186   -2.3952 N   0  0  0  0  0  0  0  0  0  0  0  0
    5.9650   -1.1041   -1.0744 N   0  0  0  0  0  0  0  0  0  0  0  0
    7.0807   -0.2421   -0.7145 C   0  0  0  0  0  0  0  0  0  0  0  0
    1.4964   -2.3461    2.5891 C   0  0  0  0  0  0  0  0  0  0  0  0
    0.1150   -1.2997    3.1733 S   0  0  0  0  0  0  0  0  0  0  0  0
   -0.0571   -0.5548    1.5309 C   0  0  0  0  0  0  0  0  0  0  0  0
   -5.5140    1.4138    0.0215 C   0  0  0  0  0  0  0  0  0  0  0  0
   -6.0745    1.4792    1.2696 C   0  0  0  0  0  0  0  0  0  0  0  0
   -7.7867    1.5693    1.1735 S   0  0  0  0  0  0  0  0  0  0  0  0
   -7.6231    1.5044   -0.5984 C   0  0  0  0  0  0  0  0  0  0  0  0
   -8.7146    1.6031   -1.3903 N   0  0  0  0  0  0  0  0  0  0  0  0
   -6.4161    1.4242   -1.0102 N   0  0  0  0  0  0  0  0  0  0  0  0
   -2.8318    2.2358   -3.6990 H   0  0  0  0  0  0  0  0  0  0  0  0
   -2.9661    0.4618   -3.8190 H   0  0  0  0  0  0  0  0  0  0  0  0
   -4.2269    1.5019   -4.5383 H   0  0  0  0  0  0  0  0  0  0  0  0
   -1.7390    0.7851   -0.5543 H   0  0  0  0  0  0  0  0  0  0  0  0
   -1.0537    1.2752    2.2771 H   0  0  0  0  0  0  0  0  0  0  0  0
    4.2075   -2.2021    3.3440 H   0  0  0  0  0  0  0  0  0  0  0  0
    3.8712   -3.2862    1.9854 H   0  0  0  0  0  0  0  0  0  0  0  0
    7.8477   -0.3843   -1.4715 H   0  0  0  0  0  0  0  0  0  0  0  0
    6.7974    0.8122   -0.6674 H   0  0  0  0  0  0  0  0  0  0  0  0
    7.4614   -0.5653    0.2522 H   0  0  0  0  0  0  0  0  0  0  0  0
    1.8213   -2.9153    3.4587 H   0  0  0  0  0  0  0  0  0  0  0  0
    1.0898   -3.0401    1.8487 H   0  0  0  0  0  0  0  0  0  0  0  0
   -0.3793   -1.3295    0.8290 H   0  0  0  0  0  0  0  0  0  0  0  0
   -5.5775    1.4879    2.2164 H   0  0  0  0  0  0  0  0  0  0  0  0
   -8.5726    1.3779   -2.3612 H   0  0  0  0  0  0  0  0  0  0  0  0
   -9.6103    1.3796   -0.9923 H   0  0  0  0  0  0  0  0  0  0  0  0
  1  2  1  0  0  0  0
  2  3  1  0  0  0  0
  3  4  2  0  0  0  0
  4  5  1  0  0  0  0
  5  6  2  0  0  0  0
  5  7  4  0  0  0  0
  7  8  1  0  0  0  0
  8  9  1  0  0  0  0
  9 10  2  0  0  0  0
  9 11  1  0  0  0  0
 11 12  1  0  0  0  0
 12 13  1  0  0  0  0
 13 14  1  0  0  0  0
 13 15  2  0  0  0  0
 12 16  2  0  0  0  0
 16 17  1  0  0  0  0
 17 18  1  0  0  0  0
 14 19  1  0  0  0  0
 18 19  1  0  0  0  0
 19 20  1  0  0  0  0
 20 21  2  0  0  0  0
 20 22  1  0  0  0  0
 21 22  2  0  0  0  0
 23 24  2  0  0  0  0
 23 25  2  0  0  0  0
 24 25  1  0  0  0  0
 19 26  1  0  0  0  0
 25 26  1  0  0  0  0
 26 27  1  0  0  0  0
 16 28  1  0  0  0  0
 28 29  1  0  0  0  0
  8 30  1  0  0  0  0
 11 30  1  0  0  0  0
 29 30  1  0  0  0  0
  4 31  1  0  0  0  0
 31 32  2  0  0  0  0
 32 33  1  0  0  0  0
 33 34  1  0  0  0  0
 34 35  4  0  0  0  0
 31 36  1  0  0  0  0
 34 36  2  0  0  0  0
  1 37  1  0  0  0  0
  1 38  1  0  0  0  0
  1 39  1  0  0  0  0
  7 40  1  0  0  0  0
  8 41  1  0  0  0  0
 17 42  1  0  0  0  0
 17 43  1  0  0  0  0
 27 44  1  0  0  0  0
 27 45  1  0  0  0  0
 27 46  1  0  0  0  0
 28 47  1  0  0  0  0
 28 48  1  0  0  0  0
 30 49  1  0  0  0  0
 32 50  1  0  0  0  0
 35 51  1  0  0  0  0
 35 52  1  0  0  0  0
M  END
