 xtb: 6.7.1 (6d44803)
          04082614243D

  5  4  0     0  0            999 V2000
   -0.7938   -0.4564   -0.9426 F   0  0  0  0  0  0  0  0  0  0  0  0
    0.0000    0.0000   -0.0000 C   0  0  0  0  0  0  0  0  0  0  0  0
   -0.2450    1.2755    0.1994 F   0  0  0  0  0  0  0  0  0  0  0  0
   -0.2130   -0.6661    1.1125 F   0  0  0  0  0  0  0  0  0  0  0  0
    1.2518   -0.1531   -0.3694 F   0  0  0  0  0  0  0  0  0  0  0  0
  1  2  1  0  0  0  0
  2  3  1  0  0  0  0
  2  4  1  0  0  0  0
  2  5  1  0  0  0  0
M  END
