 xtb: 6.7.1 (6d44803)
          04082614203D

 14 13  0     0  0            999 V2000
   -0.6483    1.2276    0.4543 C   0  0  0  0  0  0  0  0  0  0  0  0
   -0.0204    0.0878   -0.3403 C   0  0  0  0  0  0  0  0  0  0  0  0
    1.4583   -0.0840   -0.0103 C   0  0  0  0  0  0  0  0  0  0  0  0
   -0.7934   -1.2150   -0.1676 C   0  0  0  0  0  0  0  0  0  0  0  0
   -0.1013    0.4372   -1.6936 F   0  0  0  0  0  0  0  0  0  0  0  0
   -0.1110    2.1541    0.2658 H   0  0  0  0  0  0  0  0  0  0  0  0
   -1.6852    1.3634    0.1559 H   0  0  0  0  0  0  0  0  0  0  0  0
   -0.6108    1.0051    1.5167 H   0  0  0  0  0  0  0  0  0  0  0  0
    1.8913   -0.8634   -0.6328 H   0  0  0  0  0  0  0  0  0  0  0  0
    1.9927    0.8442   -0.1981 H   0  0  0  0  0  0  0  0  0  0  0  0
    1.5769   -0.3570    1.0342 H   0  0  0  0  0  0  0  0  0  0  0  0
   -0.7615   -1.5315    0.8709 H   0  0  0  0  0  0  0  0  0  0  0  0
   -0.3573   -1.9928   -0.7899 H   0  0  0  0  0  0  0  0  0  0  0  0
   -1.8301   -1.0758   -0.4651 H   0  0  0  0  0  0  0  0  0  0  0  0
  1  2  1  0  0  0  0
  2  3  1  0  0  0  0
  2  4  1  0  0  0  0
  2  5  1  0  0  0  0
  1  6  1  0  0  0  0
  1  7  1  0  0  0  0
  1  8  1  0  0  0  0
  3  9  1  0  0  0  0
  3 10  1  0  0  0  0
  3 11  1  0  0  0  0
  4 12  1  0  0  0  0
  4 13  1  0  0  0  0
  4 14  1  0  0  0  0
M  END
